<?xml version="1.0" encoding="UTF-8"?>

<!-- generated on 2024-06-06 11:46:21 by Eclipse SUMO netedit Version 1.19.0
<configuration xmlns:xsi="http://www.w3.org/2001/XMLSchema-instance" xsi:noNamespaceSchemaLocation="http://sumo.dlr.de/xsd/neteditConfiguration.xsd">

    <input>
        <sumo-net-file value="C:\Users\ILKAY\Desktop\sumo_Final_with_MQTT_Interface_Updated\my_fastapi_project\esogu.net.xml"/>
    </input>

    <output>
        <output-file value="C:\Users\ILKAY\Desktop\sumo_Final_with_MQTT_Interface_Updated\my_fastapi_project\esogu.net.xml"/>
    </output>

    <processing>
        <geometry.min-radius.fix.railways value="false"/>
        <geometry.max-grade.fix value="false"/>
        <offset.disable-normalization value="true"/>
        <lefthand value="0"/>
    </processing>

    <junctions>
        <no-turnarounds value="true"/>
        <junctions.corner-detail value="5"/>
        <junctions.limit-turn-speed value="5.50"/>
        <rectangular-lane-cut value="0"/>
    </junctions>

    <pedestrian>
        <walkingareas value="0"/>
    </pedestrian>

</configuration>
-->

<net version="1.16" junctionCornerDetail="5" limitTurnSpeed="5.50" xmlns:xsi="http://www.w3.org/2001/XMLSchema-instance" xsi:noNamespaceSchemaLocation="http://sumo.dlr.de/xsd/net_file.xsd">

    <location netOffset="-278957.05,-4401477.39" convBoundary="0.00,652.70,6311.45,1901.96" origBoundary="30.420356,39.736210,30.505766,39.768309" projParameter="+proj=utm +zone=36 +ellps=WGS84 +datum=WGS84 +units=m +no_defs"/>

    <type id="highway.residential" priority="3" numLanes="1" speed="13.89" disallow="tram rail_urban rail rail_electric rail_fast ship" oneway="0"/>
    <type id="highway.service" priority="1" numLanes="1" speed="5.56" allow="pedestrian delivery bicycle" oneway="0"/>
    <type id="highway.tertiary" priority="10" numLanes="1" speed="22.22" disallow="tram rail_urban rail rail_electric rail_fast ship" oneway="0"/>

    <edge id=":11327791247_0" function="internal">
        <lane id=":11327791247_0_0" index="0" disallow="tram rail_urban rail rail_electric rail_fast ship" speed="13.89" length="2.57" shape="5245.03,1679.70 5245.84,1682.15"/>
    </edge>
    <edge id=":11327791247_1" function="internal">
        <lane id=":11327791247_1_0" index="0" disallow="tram rail_urban rail rail_electric rail_fast ship" speed="13.89" length="2.57" shape="5248.88,1681.13 5248.06,1678.69"/>
    </edge>
    <edge id=":11327791248_0" function="internal">
        <lane id=":11327791248_0_0" index="0" disallow="tram rail_urban rail rail_electric rail_fast ship" speed="13.89" length="2.29" shape="5476.40,1694.87 5476.40,1697.16"/>
    </edge>
    <edge id=":11327791248_1" function="internal">
        <lane id=":11327791248_1_0" index="0" disallow="tram rail_urban rail rail_electric rail_fast ship" speed="13.89" length="2.27" shape="5479.60,1697.14 5479.60,1694.87"/>
    </edge>
    <edge id=":11751175224_0" function="internal">
        <lane id=":11751175224_0_0" index="0" disallow="tram rail_urban rail rail_electric rail_fast ship" speed="13.89" length="0.10" shape="6274.87,1794.81 6274.87,1794.81"/>
    </edge>
    <edge id=":11751175224_1" function="internal">
        <lane id=":11751175224_1_0" index="0" disallow="tram rail_urban rail rail_electric rail_fast ship" speed="13.89" length="0.10" shape="6271.67,1794.75 6271.67,1794.75"/>
    </edge>
    <edge id=":11751175230_0" function="internal">
        <lane id=":11751175230_0_0" index="0" disallow="tram rail_urban rail rail_electric rail_fast ship" speed="13.89" length="0.30" shape="6211.83,1879.63 6212.13,1879.63"/>
    </edge>
    <edge id=":11751175233_0" function="internal">
        <lane id=":11751175233_0_0" index="0" disallow="tram rail_urban rail rail_electric rail_fast ship" speed="13.89" length="0.10" shape="6205.10,1823.21 6205.10,1823.21"/>
    </edge>
    <edge id=":11751175233_1" function="internal">
        <lane id=":11751175233_1_0" index="0" disallow="tram rail_urban rail rail_electric rail_fast ship" speed="13.89" length="0.10" shape="6201.90,1823.15 6201.90,1823.15"/>
    </edge>
    <edge id=":11751175242_0" function="internal">
        <lane id=":11751175242_0_0" index="0" disallow="tram rail_urban rail rail_electric rail_fast ship" speed="13.89" length="0.30" shape="6084.90,1882.41 6085.20,1882.41"/>
    </edge>
    <edge id=":11751175245_0" function="internal">
        <lane id=":11751175245_0_0" index="0" disallow="tram rail_urban rail rail_electric rail_fast ship" speed="13.89" length="0.10" shape="6097.22,1882.21 6097.22,1882.21"/>
    </edge>
    <edge id=":2225294551_0" function="internal">
        <lane id=":2225294551_0_0" index="0" disallow="tram rail_urban rail rail_electric rail_fast ship" speed="3.91" length="2.47" shape="4322.10,1275.50 4321.44,1275.61 4320.96,1275.91 4320.66,1276.39 4320.55,1277.05"/>
    </edge>
    <edge id=":2225294551_1" function="internal">
        <lane id=":2225294551_1_0" index="0" disallow="tram rail_urban rail rail_electric rail_fast ship" speed="6.09" length="7.41" shape="4317.35,1276.94 4317.70,1274.95 4318.59,1273.52 4320.03,1272.64 4322.02,1272.30"/>
    </edge>
    <edge id=":2225294551_2" function="internal">
        <lane id=":2225294551_2_0" index="0" disallow="tram rail_urban rail rail_electric rail_fast ship" speed="3.65" length="1.44" shape="4317.35,1276.94 4318.19,1275.76"/>
    </edge>
    <edge id=":2225294551_3" function="internal">
        <lane id=":2225294551_3_0" index="0" disallow="tram rail_urban rail rail_electric rail_fast ship" speed="3.65" length="3.23" shape="4318.19,1275.76 4319.00,1275.39 4319.79,1275.82 4320.55,1277.05"/>
    </edge>
    <edge id=":2225294552_0" function="internal">
        <lane id=":2225294552_0_0" index="0" disallow="tram rail_urban rail rail_electric rail_fast ship" speed="6.50" length="9.07" shape="4691.95,1269.39 4691.55,1266.92 4690.47,1265.18 4688.70,1264.17 4686.23,1263.88"/>
    </edge>
    <edge id=":2225294552_1" function="internal">
        <lane id=":2225294552_1_0" index="0" disallow="tram rail_urban rail rail_electric rail_fast ship" speed="7.96" length="14.29" shape="4691.95,1269.39 4692.44,1265.49 4694.06,1262.72 4696.82,1261.07 4700.72,1260.54"/>
    </edge>
    <edge id=":2225294552_2" function="internal">
        <lane id=":2225294552_2_0" index="0" disallow="tram rail_urban rail rail_electric rail_fast ship" speed="6.45" length="9.03" shape="4700.69,1263.74 4698.23,1264.07 4696.48,1265.12 4695.46,1266.87 4695.15,1269.34"/>
    </edge>
    <edge id=":2225294552_3" function="internal">
        <lane id=":2225294552_3_0" index="0" disallow="tram rail_urban rail rail_electric rail_fast ship" speed="13.89" length="14.46" shape="4700.69,1263.74 4686.23,1263.88"/>
    </edge>
    <edge id=":2225294552_4" function="internal">
        <lane id=":2225294552_4_0" index="0" disallow="tram rail_urban rail rail_electric rail_fast ship" speed="13.89" length="14.58" shape="4686.14,1260.68 4700.72,1260.54"/>
    </edge>
    <edge id=":2225294552_5" function="internal">
        <lane id=":2225294552_5_0" index="0" disallow="tram rail_urban rail rail_electric rail_fast ship" speed="7.99" length="4.21" shape="4686.14,1260.68 4690.02,1261.13 4690.29,1261.28"/>
    </edge>
    <edge id=":2225294552_6" function="internal">
        <lane id=":2225294552_6_0" index="0" disallow="tram rail_urban rail rail_electric rail_fast ship" speed="7.99" length="10.07" shape="4690.29,1261.28 4692.82,1262.72 4694.53,1265.46 4695.15,1269.34"/>
    </edge>
    <edge id=":2225294553_0" function="internal">
        <lane id=":2225294553_0_0" index="0" disallow="tram rail_urban rail rail_electric rail_fast ship" speed="7.13" length="9.29" shape="4818.40,1266.63 4817.50,1264.25 4816.10,1262.56 4814.20,1261.58 4811.80,1261.30"/>
    </edge>
    <edge id=":2225294553_1" function="internal">
        <lane id=":2225294553_1_0" index="0" disallow="tram rail_urban rail rail_electric rail_fast ship" speed="7.54" length="14.54" shape="4818.40,1266.63 4818.14,1262.83 4819.42,1260.09 4822.24,1258.40 4826.61,1257.78"/>
    </edge>
    <edge id=":2225294553_2" function="internal">
        <lane id=":2225294553_2_0" index="0" disallow="tram rail_urban rail rail_electric rail_fast ship" speed="6.41" length="9.05" shape="4826.67,1260.78 4824.21,1261.16 4822.50,1262.25 4821.54,1264.03 4821.32,1266.53"/>
    </edge>
    <edge id=":2225294553_3" function="internal">
        <lane id=":2225294553_3_0" index="0" disallow="tram rail_urban rail rail_electric rail_fast ship" speed="6.38" length="8.87" shape="4826.67,1260.98 4824.22,1261.36 4822.51,1262.42 4821.54,1264.14 4821.32,1266.53"/>
    </edge>
    <edge id=":2225294553_4" function="internal">
        <lane id=":2225294553_4_0" index="0" disallow="tram rail_urban rail rail_electric rail_fast ship" speed="13.89" length="14.88" shape="4826.67,1260.98 4811.80,1261.30"/>
    </edge>
    <edge id=":2225294553_5" function="internal">
        <lane id=":2225294553_5_0" index="0" disallow="tram rail_urban rail rail_electric rail_fast ship" speed="13.89" length="14.90" shape="4811.72,1258.10 4826.61,1257.78"/>
    </edge>
    <edge id=":2225294553_6" function="internal">
        <lane id=":2225294553_6_0" index="0" disallow="tram rail_urban rail rail_electric rail_fast ship" speed="13.89" length="14.90" shape="4811.72,1258.10 4826.61,1257.78"/>
    </edge>
    <edge id=":2225294553_7" function="internal">
        <lane id=":2225294553_7_0" index="0" disallow="tram rail_urban rail rail_electric rail_fast ship" speed="8.16" length="4.30" shape="4811.72,1258.10 4815.74,1258.54 4815.96,1258.66"/>
    </edge>
    <edge id=":2225294553_8" function="internal">
        <lane id=":2225294553_8_0" index="0" disallow="tram rail_urban rail rail_electric rail_fast ship" speed="8.16" length="10.18" shape="4815.96,1258.66 4818.68,1260.09 4820.54,1262.75 4821.32,1266.53"/>
    </edge>
    <edge id=":2225294554_0" function="internal">
        <lane id=":2225294554_0_0" index="0" disallow="tram rail_urban rail rail_electric rail_fast ship" speed="13.89" length="8.02" shape="4852.03,1260.47 4844.01,1260.66"/>
    </edge>
    <edge id=":2225294554_1" function="internal">
        <lane id=":2225294554_1_0" index="0" disallow="tram rail_urban rail rail_electric rail_fast ship" speed="13.89" length="8.02" shape="4852.03,1260.47 4844.01,1260.63"/>
    </edge>
    <edge id=":2225294554_2" function="internal">
        <lane id=":2225294554_2_0" index="0" disallow="tram rail_urban rail rail_electric rail_fast ship" speed="13.89" length="7.98" shape="4843.95,1257.46 4851.93,1257.27"/>
    </edge>
    <edge id=":2225294554_3" function="internal">
        <lane id=":2225294554_3_0" index="0" disallow="tram rail_urban rail rail_electric rail_fast ship" speed="3.65" length="1.44" shape="4843.95,1257.46 4845.17,1258.24"/>
    </edge>
    <edge id=":2225294554_6" function="internal">
        <lane id=":2225294554_6_0" index="0" disallow="tram rail_urban rail rail_electric rail_fast ship" speed="3.65" length="3.23" shape="4845.17,1258.24 4845.58,1259.03 4845.20,1259.84 4844.01,1260.66"/>
    </edge>
    <edge id=":2225294554_4" function="internal">
        <lane id=":2225294554_4_0" index="0" disallow="tram rail_urban rail rail_electric rail_fast ship" speed="13.89" length="7.98" shape="4843.95,1257.46 4851.93,1257.27"/>
    </edge>
    <edge id=":2225294554_5" function="internal">
        <lane id=":2225294554_5_0" index="0" disallow="tram rail_urban rail rail_electric rail_fast ship" speed="3.64" length="4.62" shape="4843.95,1257.46 4845.15,1258.23 4845.56,1259.02 4845.18,1259.81 4844.01,1260.63"/>
    </edge>
    <edge id=":2225294558_0" function="internal">
        <lane id=":2225294558_0_0" index="0" disallow="tram rail_urban rail rail_electric rail_fast ship" speed="13.89" length="0.23" shape="4819.02,1283.34 4819.02,1283.11"/>
    </edge>
    <edge id=":2225294558_1" function="internal">
        <lane id=":2225294558_1_0" index="0" disallow="tram rail_urban rail rail_electric rail_fast ship" speed="13.89" length="0.32" shape="4822.21,1282.98 4822.22,1283.30"/>
    </edge>
    <edge id=":2225294604_0" function="internal">
        <lane id=":2225294604_0_0" index="0" disallow="tram rail_urban rail rail_electric rail_fast ship" speed="6.53" length="9.08" shape="4826.15,1506.86 4825.75,1504.40 4824.66,1502.65 4822.89,1501.62 4820.43,1501.30"/>
    </edge>
    <edge id=":2225294604_1" function="internal">
        <lane id=":2225294604_1_0" index="0" disallow="tram rail_urban rail rail_electric rail_fast ship" speed="13.89" length="11.28" shape="4826.15,1506.86 4825.85,1495.59"/>
    </edge>
    <edge id=":2225294604_2" function="internal">
        <lane id=":2225294604_2_0" index="0" disallow="tram rail_urban rail rail_electric rail_fast ship" speed="6.49" length="9.03" shape="4834.85,1501.13 4832.40,1501.51 4830.67,1502.57 4829.65,1504.34 4829.34,1506.80"/>
    </edge>
    <edge id=":2225294604_3" function="internal">
        <lane id=":2225294604_3_0" index="0" speed="13.89" length="14.42" shape="4834.85,1501.13 4820.43,1501.30"/>
    </edge>
    <edge id=":2225294604_4" function="internal">
        <lane id=":2225294604_4_0" index="0" disallow="tram rail_urban rail rail_electric rail_fast ship" speed="7.43" length="11.82" shape="4834.85,1501.13 4831.00,1500.82 4828.21,1499.79 4826.50,1498.04 4825.85,1495.59"/>
    </edge>
    <edge id=":2225294604_5" function="internal">
        <lane id=":2225294604_5_0" index="0" disallow="tram rail_urban rail rail_electric rail_fast ship" speed="13.89" length="11.34" shape="4829.05,1495.46 4829.34,1506.80"/>
    </edge>
    <edge id=":2225294613_0" function="internal">
        <lane id=":2225294613_0_0" index="0" disallow="tram rail_urban rail rail_electric rail_fast ship" speed="7.73" length="10.82" shape="6137.10,1497.69 6134.96,1496.50 6132.59,1496.28 6130.00,1497.03 6127.19,1498.75"/>
    </edge>
    <edge id=":2225294613_1" function="internal">
        <lane id=":2225294613_1_0" index="0" disallow="tram rail_urban rail rail_electric rail_fast ship" speed="13.89" length="14.91" shape="6137.10,1497.69 6134.17,1495.37 6131.18,1493.16 6128.12,1491.05 6125.00,1488.99"/>
    </edge>
    <edge id=":2225294613_2" function="internal">
        <lane id=":2225294613_2_0" index="0" disallow="tram rail_urban rail rail_electric rail_fast ship" speed="13.89" length="15.29" shape="6126.73,1486.30 6129.90,1488.39 6133.07,1490.58 6136.17,1492.87 6139.14,1495.22"/>
    </edge>
    <edge id=":2225294613_3" function="internal">
        <lane id=":2225294613_3_0" index="0" disallow="tram rail_urban rail rail_electric rail_fast ship" speed="3.65" length="1.44" shape="6126.73,1486.30 6127.31,1487.63"/>
    </edge>
    <edge id=":2225294613_7" function="internal">
        <lane id=":2225294613_7_0" index="0" disallow="tram rail_urban rail rail_electric rail_fast ship" speed="3.65" length="3.23" shape="6127.31,1487.63 6127.21,1488.52 6126.44,1488.97 6125.00,1488.99"/>
    </edge>
    <edge id=":2225294613_4" function="internal">
        <lane id=":2225294613_4_0" index="0" disallow="tram rail_urban rail rail_electric rail_fast ship" speed="5.88" length="9.11" shape="6125.26,1496.19 6127.13,1494.32 6127.71,1492.50 6127.00,1490.72 6125.00,1488.99"/>
    </edge>
    <edge id=":2225294613_5" function="internal">
        <lane id=":2225294613_5_0" index="0" disallow="tram rail_urban rail rail_electric rail_fast ship" speed="9.05" length="15.13" shape="6125.26,1496.19 6129.08,1493.91 6132.67,1492.98 6136.02,1493.42 6139.14,1495.22"/>
    </edge>
    <edge id=":2225294613_6" function="internal">
        <lane id=":2225294613_6_0" index="0" disallow="tram rail_urban rail rail_electric rail_fast ship" speed="3.65" length="4.67" shape="6125.26,1496.19 6126.70,1496.11 6127.51,1496.51 6127.67,1497.39 6127.19,1498.75"/>
    </edge>
    <edge id=":2225294615_0" function="internal">
        <lane id=":2225294615_0_0" index="0" disallow="tram rail_urban rail rail_electric rail_fast ship" speed="10.31" length="11.26" shape="6125.82,1499.78 6123.27,1501.98 6121.41,1504.23 6120.24,1506.53 6119.76,1508.88"/>
    </edge>
    <edge id=":2225294615_1" function="internal">
        <lane id=":2225294615_1_0" index="0" disallow="tram rail_urban rail rail_electric rail_fast ship" speed="7.66" length="15.10" shape="6125.82,1499.78 6122.07,1501.84 6118.80,1502.01 6116.02,1500.30 6113.71,1496.69"/>
    </edge>
    <edge id=":2225294615_2" function="internal">
        <lane id=":2225294615_2_0" index="0" disallow="tram rail_urban rail rail_electric rail_fast ship" speed="3.65" length="4.67" shape="6125.82,1499.78 6124.38,1499.86 6123.58,1499.46 6123.42,1498.58 6123.89,1497.22"/>
    </edge>
    <edge id=":2225294615_3" function="internal">
        <lane id=":2225294615_3_0" index="0" disallow="tram rail_urban rail rail_electric rail_fast ship" speed="6.08" length="9.06" shape="6116.63,1495.37 6118.01,1497.53 6119.68,1498.56 6121.64,1498.46 6123.89,1497.22"/>
    </edge>
    <edge id=":2225294615_4" function="internal">
        <lane id=":2225294615_4_0" index="0" disallow="tram rail_urban rail rail_electric rail_fast ship" speed="13.89" length="14.01" shape="6116.63,1495.37 6118.03,1498.70 6119.07,1501.96 6119.68,1505.30 6119.76,1508.88"/>
    </edge>
    <edge id=":2225294615_5" function="internal">
        <lane id=":2225294615_5_0" index="0" disallow="tram rail_urban rail rail_electric rail_fast ship" speed="3.65" length="1.44" shape="6116.63,1495.37 6116.39,1496.79"/>
    </edge>
    <edge id=":2225294615_9" function="internal">
        <lane id=":2225294615_9_0" index="0" disallow="tram rail_urban rail rail_electric rail_fast ship" speed="3.65" length="3.23" shape="6116.39,1496.79 6115.83,1497.49 6114.94,1497.45 6113.71,1496.69"/>
    </edge>
    <edge id=":2225294615_6" function="internal">
        <lane id=":2225294615_6_0" index="0" disallow="tram rail_urban rail rail_electric rail_fast ship" speed="13.89" length="12.50" shape="6116.57,1508.70 6116.53,1505.36 6116.02,1502.53 6115.07,1499.79 6113.71,1496.69"/>
    </edge>
    <edge id=":2225294615_7" function="internal">
        <lane id=":2225294615_7_0" index="0" disallow="tram rail_urban rail rail_electric rail_fast ship" speed="11.46" length="3.11" shape="6116.57,1508.70 6117.16,1505.65"/>
    </edge>
    <edge id=":2225294615_8" function="internal">
        <lane id=":2225294615_8_0" index="0" disallow="tram rail_urban rail rail_electric rail_fast ship" speed="3.65" length="1.44" shape="6116.57,1508.70 6117.43,1507.55"/>
    </edge>
    <edge id=":2225294615_10" function="internal">
        <lane id=":2225294615_10_0" index="0" disallow="tram rail_urban rail rail_electric rail_fast ship" speed="11.46" length="10.93" shape="6117.16,1505.65 6118.57,1502.72 6120.82,1499.91 6123.89,1497.22"/>
    </edge>
    <edge id=":2225294615_11" function="internal">
        <lane id=":2225294615_11_0" index="0" disallow="tram rail_urban rail rail_electric rail_fast ship" speed="3.65" length="3.23" shape="6117.43,1507.55 6118.25,1507.19 6119.03,1507.63 6119.76,1508.88"/>
    </edge>
    <edge id=":2225294620_0" function="internal">
        <lane id=":2225294620_0_0" index="0" disallow="tram rail_urban rail rail_electric rail_fast ship" speed="13.89" length="0.29" shape="4699.37,1537.99 4699.36,1537.70"/>
    </edge>
    <edge id=":2225294620_1" function="internal">
        <lane id=":2225294620_1_0" index="0" disallow="tram rail_urban rail rail_electric rail_fast ship" speed="13.89" length="0.31" shape="4702.55,1537.58 4702.56,1537.89"/>
    </edge>
    <edge id=":2225294623_0" function="internal">
        <lane id=":2225294623_0_0" index="0" disallow="tram rail_urban rail rail_electric rail_fast ship" speed="13.89" length="0.31" shape="5816.14,1549.40 5816.14,1549.09"/>
    </edge>
    <edge id=":2225294623_1" function="internal">
        <lane id=":2225294623_1_0" index="0" disallow="tram rail_urban rail rail_electric rail_fast ship" speed="13.89" length="0.29" shape="5819.34,1549.07 5819.34,1549.36"/>
    </edge>
    <edge id=":2225294627_0" function="internal">
        <lane id=":2225294627_0_0" index="0" disallow="tram rail_urban rail rail_electric rail_fast ship" speed="13.89" length="0.30" shape="4704.34,1599.44 4704.34,1599.74"/>
    </edge>
    <edge id=":2225294627_1" function="internal">
        <lane id=":2225294627_1_0" index="0" disallow="tram rail_urban rail rail_electric rail_fast ship" speed="13.89" length="0.20" shape="4701.14,1599.71 4701.14,1599.50"/>
    </edge>
    <edge id=":2225294628_0" function="internal">
        <lane id=":2225294628_0_0" index="0" disallow="tram rail_urban rail rail_electric rail_fast ship" speed="13.89" length="0.31" shape="4831.80,1614.40 4831.80,1614.70"/>
    </edge>
    <edge id=":2225294628_1" function="internal">
        <lane id=":2225294628_1_0" index="0" disallow="tram rail_urban rail rail_electric rail_fast ship" speed="13.89" length="0.22" shape="4828.60,1614.62 4828.60,1614.40"/>
    </edge>
    <edge id=":2225294639_0" function="internal">
        <lane id=":2225294639_0_0" index="0" disallow="tram rail_urban rail rail_electric rail_fast ship" speed="4.27" length="1.20" shape="5673.38,1571.41 5673.11,1571.18 5672.89,1571.06 5672.65,1571.00 5672.30,1571.00"/>
    </edge>
    <edge id=":2225294639_1" function="internal">
        <lane id=":2225294639_1_0" index="0" disallow="tram rail_urban rail rail_electric rail_fast ship" speed="6.78" length="3.61" shape="5672.28,1567.80 5673.34,1567.82 5674.07,1567.98 5674.72,1568.35 5675.52,1569.03"/>
    </edge>
    <edge id=":2225294648_0" function="internal">
        <lane id=":2225294648_0_0" index="0" disallow="tram rail_urban rail rail_electric rail_fast ship" speed="13.89" length="0.17" shape="6249.65,1631.85 6249.56,1631.71"/>
    </edge>
    <edge id=":2225294648_1" function="internal">
        <lane id=":2225294648_1_0" index="0" disallow="tram rail_urban rail rail_electric rail_fast ship" speed="13.89" length="0.29" shape="6252.19,1629.90 6252.35,1630.14"/>
    </edge>
    <edge id=":2225294658_0" function="internal">
        <lane id=":2225294658_0_0" index="0" disallow="tram rail_urban rail rail_electric rail_fast ship" speed="6.53" length="9.06" shape="5816.24,1656.10 5815.87,1653.65 5814.80,1651.89 5813.04,1650.85 5810.59,1650.51"/>
    </edge>
    <edge id=":2225294658_1" function="internal">
        <lane id=":2225294658_1_0" index="0" disallow="tram rail_urban rail rail_electric rail_fast ship" speed="13.89" length="11.29" shape="5816.24,1656.10 5816.22,1644.81"/>
    </edge>
    <edge id=":2225294658_2" function="internal">
        <lane id=":2225294658_2_0" index="0" disallow="tram rail_urban rail rail_electric rail_fast ship" speed="6.50" length="9.03" shape="5825.00,1650.44 5822.55,1650.81 5820.80,1651.87 5819.77,1653.62 5819.44,1656.08"/>
    </edge>
    <edge id=":2225294658_3" function="internal">
        <lane id=":2225294658_3_0" index="0" speed="13.89" length="14.41" shape="5825.00,1650.44 5810.59,1650.51"/>
    </edge>
    <edge id=":2225294658_4" function="internal">
        <lane id=":2225294658_4_0" index="0" disallow="tram rail_urban rail rail_electric rail_fast ship" speed="7.30" length="11.76" shape="5825.00,1650.44 5821.14,1650.11 5818.39,1649.06 5816.75,1647.29 5816.22,1644.81"/>
    </edge>
    <edge id=":2225294658_5" function="internal">
        <lane id=":2225294658_5_0" index="0" disallow="tram rail_urban rail rail_electric rail_fast ship" speed="13.89" length="11.23" shape="5819.42,1644.85 5819.44,1656.08"/>
    </edge>
    <edge id=":2225294658_6" function="internal">
        <lane id=":2225294658_6_0" index="0" disallow="tram rail_urban rail rail_electric rail_fast ship" speed="7.38" length="2.53" shape="5819.42,1644.85 5818.85,1647.31"/>
    </edge>
    <edge id=":2225294658_7" function="internal">
        <lane id=":2225294658_7_0" index="0" disallow="tram rail_urban rail rail_electric rail_fast ship" speed="7.38" length="9.24" shape="5818.85,1647.31 5817.18,1649.08 5814.43,1650.14 5810.59,1650.51"/>
    </edge>
    <edge id=":2225294666_0" function="internal">
        <lane id=":2225294666_0_0" index="0" disallow="tram rail_urban rail rail_electric rail_fast ship" speed="13.89" length="0.30" shape="5816.32,1665.79 5816.31,1665.48"/>
    </edge>
    <edge id=":2225294666_1" function="internal">
        <lane id=":2225294666_1_0" index="0" disallow="tram rail_urban rail rail_electric rail_fast ship" speed="13.89" length="0.21" shape="5819.51,1665.46 5819.51,1665.67"/>
    </edge>
    <edge id=":2225294673_0" function="internal">
        <lane id=":2225294673_0_0" index="0" disallow="tram rail_urban rail rail_electric rail_fast ship" speed="13.89" length="14.22" shape="4704.16,1705.19 4703.73,1690.98"/>
    </edge>
    <edge id=":2225294673_1" function="internal">
        <lane id=":2225294673_1_0" index="0" disallow="tram rail_urban rail rail_electric rail_fast ship" speed="8.02" length="3.95" shape="4704.16,1705.19 4704.63,1701.37 4704.68,1701.29"/>
    </edge>
    <edge id=":2225294673_7" function="internal">
        <lane id=":2225294673_7_0" index="0" disallow="tram rail_urban rail rail_electric rail_fast ship" speed="8.02" length="10.15" shape="4704.68,1701.29 4706.22,1698.60 4708.91,1696.88 4712.72,1696.21"/>
    </edge>
    <edge id=":2225294673_2" function="internal">
        <lane id=":2225294673_2_0" index="0" disallow="tram rail_urban rail rail_electric rail_fast ship" speed="6.53" length="9.00" shape="4712.82,1699.41 4710.39,1699.84 4708.67,1700.93 4707.66,1702.70 4707.35,1705.14"/>
    </edge>
    <edge id=":2225294673_3" function="internal">
        <lane id=":2225294673_3_0" index="0" disallow="tram rail_urban rail rail_electric rail_fast ship" speed="8.00" length="14.11" shape="4712.82,1699.41 4708.98,1698.99 4706.19,1697.45 4704.44,1694.78 4703.73,1690.98"/>
    </edge>
    <edge id=":2225294673_4" function="internal">
        <lane id=":2225294673_4_0" index="0" disallow="tram rail_urban rail rail_electric rail_fast ship" speed="3.65" length="4.67" shape="4712.82,1699.41 4711.60,1698.65 4711.17,1697.86 4711.54,1697.05 4712.72,1696.21"/>
    </edge>
    <edge id=":2225294673_5" function="internal">
        <lane id=":2225294673_5_0" index="0" disallow="tram rail_urban rail rail_electric rail_fast ship" speed="6.51" length="8.98" shape="4706.93,1690.85 4707.38,1693.26 4708.49,1694.96 4710.27,1695.94 4712.72,1696.21"/>
    </edge>
    <edge id=":2225294673_6" function="internal">
        <lane id=":2225294673_6_0" index="0" disallow="tram rail_urban rail rail_electric rail_fast ship" speed="13.89" length="14.30" shape="4706.93,1690.85 4707.35,1705.14"/>
    </edge>
    <edge id=":2225294678_0" function="internal">
        <lane id=":2225294678_0_0" index="0" disallow="tram rail_urban rail rail_electric rail_fast ship" speed="13.89" length="0.46" shape="5173.70,1687.70 5174.17,1687.69"/>
    </edge>
    <edge id=":2225294678_1" function="internal">
        <lane id=":2225294678_1_0" index="0" disallow="tram rail_urban rail rail_electric rail_fast ship" speed="13.89" length="0.42" shape="5174.07,1684.50 5173.65,1684.50"/>
    </edge>
    <edge id=":2225294689_0" function="internal">
        <lane id=":2225294689_0_0" index="0" disallow="tram rail_urban rail rail_electric rail_fast ship" speed="13.89" length="14.31" shape="5484.77,1702.11 5470.49,1701.02"/>
    </edge>
    <edge id=":2225294689_1" function="internal">
        <lane id=":2225294689_1_0" index="0" disallow="tram rail_urban rail rail_electric rail_fast ship" speed="7.70" length="4.30" shape="5484.77,1702.11 5481.11,1701.39 5480.60,1701.12"/>
    </edge>
    <edge id=":2225294689_8" function="internal">
        <lane id=":2225294689_8_0" index="0" disallow="tram rail_urban rail rail_electric rail_fast ship" speed="7.70" length="7.88" shape="5480.60,1701.12 5478.49,1699.98 5476.92,1697.88 5476.40,1695.07"/>
    </edge>
    <edge id=":2225294689_2" function="internal">
        <lane id=":2225294689_2_0" index="0" disallow="tram rail_urban rail rail_electric rail_fast ship" speed="6.13" length="7.37" shape="5479.60,1695.07 5479.94,1696.58 5480.96,1697.72 5482.66,1698.50 5485.05,1698.92"/>
    </edge>
    <edge id=":2225294689_3" function="internal">
        <lane id=":2225294689_3_0" index="0" disallow="tram rail_urban rail rail_electric rail_fast ship" speed="7.37" length="12.48" shape="5479.60,1695.07 5479.03,1697.90 5477.32,1699.83 5474.48,1700.87 5470.49,1701.02"/>
    </edge>
    <edge id=":2225294689_4" function="internal">
        <lane id=":2225294689_4_0" index="0" disallow="tram rail_urban rail rail_electric rail_fast ship" speed="3.65" length="4.67" shape="5479.60,1695.07 5478.80,1696.27 5478.00,1696.67 5477.20,1696.27 5476.40,1695.07"/>
    </edge>
    <edge id=":2225294689_5" function="internal">
        <lane id=":2225294689_5_0" index="0" disallow="tram rail_urban rail rail_electric rail_fast ship" speed="5.74" length="7.13" shape="5470.70,1697.83 5473.20,1697.79 5474.98,1697.32 5476.04,1696.42 5476.40,1695.07"/>
    </edge>
    <edge id=":2225294689_6" function="internal">
        <lane id=":2225294689_6_0" index="0" disallow="tram rail_urban rail rail_electric rail_fast ship" speed="13.89" length="14.38" shape="5470.70,1697.83 5485.05,1698.92"/>
    </edge>
    <edge id=":2225294689_7" function="internal">
        <lane id=":2225294689_7_0" index="0" disallow="tram rail_urban rail rail_electric rail_fast ship" speed="3.65" length="1.44" shape="5470.70,1697.83 5471.85,1698.70"/>
    </edge>
    <edge id=":2225294689_9" function="internal">
        <lane id=":2225294689_9_0" index="0" disallow="tram rail_urban rail rail_electric rail_fast ship" speed="3.65" length="3.23" shape="5471.85,1698.70 5472.20,1699.53 5471.74,1700.30 5470.49,1701.02"/>
    </edge>
    <edge id=":2225294691_0" function="internal">