<?xml version="1.0" encoding="UTF-8"?>

<!-- generated on 2024-06-06 13:36:01 by Eclipse SUMO netedit Version 1.19.0
-->

<routes xmlns:xsi="http://www.w3.org/2001/XMLSchema-instance" xsi:noNamespaceSchemaLocation="http://sumo.dlr.de/xsd/routes_file.xsd">
    <!-- VTypes -->
    <route id="basa_don" edges="E1 697983203"/>
    <route id="r_10" edges="E4 -212712097#3"/>
    <route id="r_11" edges="E7 212712097#5"/>
    <route id="r_12" edges="E10 669466787#3"/>
    <route id="r_13" edges="E13 -669466787#1"/>
    <route id="r_14" edges="E16 212712115#9"/>
    <route id="r_15" edges="E19 -212712115#7"/>
    <!-- Routes -->
    <route id="r_0" edges="697983203 1060234726#2 697983206#0 697983206#3 697983206#5 369625684#4 369625684#0 369625682#0 369625682#1 369625682#3 369625682#4 369625682#5 369625682#6 369625682#7 369625682#8 369625682#9 369625682#10 369625682#11 369625682#12 369625682#13 369625682#14 369625682#15 368610900#3 368610900#4 368610900#5 368610900#0 368610900#1 369628890#0 369628890#1 369628890#2 369628890#3 369628890#4 369628890#5 -669466787#3 -669466787#2 -669466787#1 -669466787#0 -368620842#14 -368620842#13 -368620842#12 -368620842#11 -368620842#10 -368620842#9 -368620842#8 -368620842#7 -368620842#6 -368620842#5 -368620842#4 -368620842#3 -368620842#2 -368620842#1 -368620842#0 212712118#0 212712118#1 212712118#2 212712118#3 212712118#4 369625683#0 369625683#1 369625683#2 369625683#3 369625683#4 369625683#5 369625683#6 369625683#7 1060234726#0 697983200 E1"/>
    <route id="r_1" edges="697983203 1060234726#2 1060234726#3 368610899 -212712097#24 -212712097#23 -212712097#22 -212712097#21 -212712097#20 -212712097#19 -212712097#18 -212712097#17 -212712097#16 -212712097#15 -212712097#14 -212712097#13 -212712097#12 -212712097#11 -212712097#10 -212712097#9 -212712097#8 -212712097#7 -212712097#6 -212712097#5 -212712097#4 -212712097#3 -212712097#2 -212712097#1 -212712097#0 -368620842#0 212712118#0 212712118#1 212712118#2 212712118#3 212712118#4 369625683#0 369625683#1 369625683#2 369625683#3 369625683#4 369625683#5 369625683#6 369625683#7 1060234726#0 697983200 E1"/>
    <route id="r_2" edges="697983203 1060234726#2 697983206#0 697983206#3 697983206#5 369625684#4 369625684#0 369625682#0 369625682#1 369625682#3 369625682#4 369625682#5 369625682#6 369625682#7 369625682#8 369625682#9 369625682#10 369625682#11 369625682#12 369625682#13 369625682#14 369625682#15 368610900#3 368610900#4 369628891#0 369628891#1 212712103 605647262#0 605647262#1 605647262#2 605647262#3 605647262#4 605647262#5 605647262#6 605647262#7 605647262#8 605647262#10 374419204#1 374419204#2 374419204#3 374419204#4 -724024576#3 -724024576#2 -724024576#1 212712115#1 212712115#2 212712115#3 212712115#4 212712115#5 212712115#6 212712115#7 212712115#8 212712115#9 212712115#10 212712115#11 368611134#0 368611134#1 -368620842#17 -368620842#16 -368620842#15 -368620842#14 -368620842#13 -368620842#12 -368620842#11 -368620842#10 -368620842#9 -368620842#8 -368620842#7 -368620842#6 -368620842#5 -368620842#4 -368620842#3 -368620842#2 -368620842#1 -368620842#0 212712118#0 212712118#1 212712118#2 212712118#3 212712118#4 369625683#0 369625683#1 369625683#2 369625683#3 369625683#4 369625683#5 369625683#6 369625683#7 1060234726#0 697983200 E1" color="magenta"/>
    <route id="r_3" edges="697983203 1060234726#2 697983206#0 697983206#3 697983206#5 369625684#4 369625684#0 369625682#0 369625682#1 369625682#3 369625682#4 369625682#5 369625682#6 369625682#7 369625682#8 369625682#9 369625682#10 369625682#11 369625682#12 369625682#13 369625682#14 369625682#15 368610900#3 605645768 605647265 -724024576#12 -724024576#11 -724024576#10 -724024576#9 -724024576#8 -724024576#7 -724024576#6 -724024576#5 -724024576#4 -374419204#4 -374419204#3 -374419204#2 -374419204#1 -605647262#10 -605647262#8 -605647262#7 -605647262#6 -605647262#5 -605647262#4 -605647262#3 -605647262#2 -605647262#1 -605647262#0 -368620842#20 -368611134#1 -368611134#0 -212712115#11 -212712115#10 -212712115#9 -212712115#8 -212712115#7 -212712115#6 -212712115#5 -212712115#4 -212712115#3 -212712115#2 -212712115#1 -212712115#0 -212712104#4 -668817633#4 -668817633#3 -668817633#2 -668817633#1 -668817633#0 -368620842#9 -368620842#8 -368620842#7 -368620842#6 -368620842#5 -368620842#4 -368620842#3 -368620842#2 -368620842#1 -368620842#0 212712118#0 212712118#1 212712118#2 212712118#3 212712118#4 369625683#0 369625683#1 369625683#2 369625683#3 369625683#4 369625683#5 369625683#6 369625683#7 1060234726#0 697983200 E1" color="0,7,255"/>
    <route id="r_4" edges="697983203 1060234726#2 697983206#0 697983206#3 697983206#5 369625684#4 369625684#0 369625684#1 212712098#0 212712098#1 368620842#0 212712097#0 212712097#1 212712097#2 212712097#3 212712097#4 212712097#5 212712097#6 212712097#7 212712097#8 212712097#9 212712097#10 212712097#11 212712097#12 212712097#13 212712097#14 212712097#15 212712097#16 212712097#17 212712097#18 212712097#19 212712097#20 212712097#21 212712097#22 212712097#23 212712097#24 374420990 697983200 E1" color="28,255,0"/>

    <route id="r_6" edges="697983203 1060234726#2 697983206#0 697983206#3 697983206#5 369625684#4 369625684#0 369625682#0 369625682#1 369625682#3 369625682#4 369625682#5 369625682#6 369625682#7 369625682#8 369625682#9 369625682#10 369625682#11 369625682#12 369625682#13 369625682#14 369625682#15 368610900#3 368610900#4 369628891#0 369628891#1 212712103 -368620842#20 -368620842#17 -368620842#16 -368620842#15 669466787#0 669466787#1 669466787#2 669466787#3 369628890#6 369628890#7 369628890#8 369628890#9 369628890#10 369628890#11 369628890#12 369628890#13 369625684#2 369625683#0 369625683#1 369625683#2 369625683#3 369625683#4 369625683#5 369625683#6 369625683#7 1060234726#0 697983200 E1" color="255,0,10"/>

    <vehicle id="v_0" depart="0.00" type="electricCar" color="232,228,236" route="r_1"/>
    <vehicle id="v_1" depart="0.00" type="electricCar" color="105,105,0" route="r_1"/>
    <vehicle id="v_2" depart="0.00" type="electricCar" color="255,4,4" route="r_1"/>
	<vehicle id="v_3" depart="0.00" type="electricCar" color= "6,250,243" route="r_1"/>
    <vehicle id="v_4" depart="0.00" type="electricCar" color= "128,188,68" route="r_2"/>
    <vehicle id="v_5" depart="0.00" type="electricCar" color= "127,127,127" route="r_2"/>
    <vehicle id="v_6" depart="0.00" type="electricCar" color= "255,255,0" route="r_3"/>
    <vehicle id="v_7" depart="0.00" type="electricCar" color= "255,4,252" route="r_4"/>
    <vehicle id="v_8" depart="0.00" type="electricCar" color= "141,106,255" route="r_4"/>

</routes>
